@<TRIPOS>MOLECULE
ET1.pdb
 28 29 0 0 0
SMALL
GASTEIGER

@<TRIPOS>ATOM
      1  N01       20.4790   62.3620   15.7250 N.2     1  ET11       -0.2792
      2  C02       20.2010   63.2070   16.7840 C.2     1  ET11        0.0267
      3  C03       20.9890   64.3240   16.7230 C.2     1  ET11       -0.0237
      4  C04       21.7730   64.1800   15.5270 C.2     1  ET11       -0.0113
      5  C05       21.4530   62.9340   14.9150 C.3     1  ET11        0.0947
      6  C06       23.3380   64.6280   13.6660 C.2     1  ET11        0.1202
      7  C07       23.0070   63.3790   13.0860 C.2     1  ET11       -0.0216
      8  C08       22.0730   62.5320   13.7130 C.2     1  ET11       -0.0521
      9  C09       22.7210   64.9990   14.8770 C.2     1  ET11       -0.0142
     10  O10       24.2310   65.5270   13.1240 O.2     1  ET11       -0.4951
     11  C11       24.8490   65.1980   11.8900 C.3     1  ET11        0.0788
     12  C12       21.0130   65.4900   17.6760 C.3     1  ET11       -0.0208
     13  C13       19.8130   65.5810   18.6480 C.3     1  ET11       -0.0092
     14  C14       19.7910   64.4950   19.7340 C.2     1  ET11        0.0421
     15  O24       20.8670   64.2080   20.2990 O.co2   1  ET11       -0.5498
     16  O25       18.6900   63.9600   19.9900 O.co2   1  ET11       -0.5498
     17 HC02       19.4440   62.9390   17.5060 H       1  ET11        0.0828
     18 HC07       23.4590   63.0460   12.1640 H       1  ET11        0.0652
     19 HC08       21.8350   61.5830   13.2600 H       1  ET11        0.0597
     20 HC09       22.9520   65.9530   15.3190 H       1  ET11        0.0658
     21 H111       25.4870   66.0230   11.5740 H       1  ET11        0.0660
     22 H112       25.4770   64.3150   12.0000 H       1  ET11        0.0660
     23 H113       24.1180   65.0200   11.1020 H       1  ET11        0.0660
     24 H121       21.9470   65.4840   18.2390 H       1  ET11        0.0317
     25 H122       21.0410   66.4140   17.0970 H       1  ET11        0.0317
     26 H131       18.8800   65.5450   18.0880 H       1  ET11        0.0328
     27 H132       19.8430   66.5490   19.1470 H       1  ET11        0.0328
     28 H          21.6149   62.1480   14.2073 H       1  ET11        0.0639
@<TRIPOS>UNITY_ATOM_ATTR
16 1
charge -1
@<TRIPOS>BOND
     1     1     2    2
     2     1     5    1
     3     2     3    1
     4     2    17    1
     5     3     4    2
     6     3    12    1
     7     4     5    1
     8     4     9    1
     9     5     8    1
    10     6     7    1
    11     6     9    2
    12     6    10    1
    13     7     8    2
    14     7    18    1
    15     8    19    1
    16     9    20    1
    17    10    11    1
    18    11    21    1
    19    11    22    1
    20    11    23    1
    21    12    24    1
    22    12    25    1
    23    12    13    1
    24    13    14    1
    25    13    26    1
    26    13    27    1
    27    14    15   ar
    28    14    16   ar
    29     5    28    1
